!! Run timing control
!!
!! *Note*: The time step is set in the &namdom namelist in the namelist.domain
!!         file.
!!
&namrun        !   Parameters of the run
!-----------------------------------------------------------------------
   cn_exp      = "SHEM"  ! experience name
   nn_it000    = 12756961     ! first time step
   nn_itend    = 13029121     ! last time step (std 1 day = 2160 re: rn_rdt in &namdom)
   nn_date0    = 20180226     ! date at nit_0000 = 1 (format yyyymmdd)
                              ! used to adjust tides to run date (regardless of restart control)
   nn_leapy    =       0      ! Leap year calendar (1) or not (0)
   ln_rstart   =       T      ! start from rest (F) or from a restart file (T)
   nn_rstctl   =       2      ! restart control => activated only if ln_rstart = T
                              !   = 0 nn_date0 read in namelist
                              !       nn_it000 read in namelist
                              !   = 1 nn_date0 read in namelist
                              !       nn_it000 check consistency between namelist and restart
                              !   = 2 nn_date0 read in restart
                              !       nn_it000 check consistency between namelist and restart
   nn_istate   =       0      ! output the initial state (1) or not (0)
   nn_stock    =    10800      ! frequency of creation of a restart file (modulo referenced to 1)
   ln_rst_list  = .false.       !  output restarts at list of times using nn_stocklist (T) or at set frequency with nn_stock (F)
   ln_clobber  =  .true.      ! clobber (overwrite) an existing file
&end

